*SPEF "1481-1998"
*DESIGN "seq_det"
*DATE "Tue Jun  3 14:29:47 2025"
*VENDOR "Synopsys, Inc."
*PROGRAM "icc2 /home/synopsys_install/icc2/W-2024.09/linux64/nwtn/bin/icc2_exec"
*VERSION "W-2024.09 Aug 25, 2024"
*DESIGN_FLOW "ICC2 SPEF DR"
*DIVIDER /
*DELIMITER :
*BUS_DELIMITER [ ]
*T_UNIT 1 NS
*C_UNIT 1 FF
*R_UNIT 1 OHM
*L_UNIT 1 HENRY

// XY_UNIT 1 UM
// PARASITIC_TECH p2 at 125.000 degree

*NAME_MAP
*1 data_in
*2 Clock
*3 reset
*4 detected
*5 VDD
*6 VSS
*7 current_state_reg[0]
*8 current_state_reg[1]
*9 ctosc_drc_inst_336
*10 ctosc_drc_inst_427
*11 ctmTdsLR_1_428
*12 ctmTdsLR_2_429
*13 HFSINV_83_0
*14 U20
*15 U21
*16 U23
*17 U24
*18 U25
*19 N7
*20 N8
*21 ctosc_drc_0
*22 ctosc_drc_1
*23 tmp_net2
*24 HFSNET_0
*25 n15
*26 n16
*27 n18
*28 n19
*29 n20
*30 current_state[1]
*31 current_state[0]

*PORTS

*1 I *C 2.672 0.143
*2 I *C 4.192 8.545
*3 I *C 2.976 8.545
*4 O *C 0.143 3.432
*5 I *C 4.648 4.344
*6 I *C 4.648 4.344

*D_NET *1 0.5337631 //LENGTH 6.970 LUMPCC 0 DR

*CONN
*P *1 I *L 0 *C 2.672 0.258
*I *15:A1 I *L 0.610165 *C 2.369 1.912
*I *16:A1 I *L 0.546332 *C 1.760 3.736
*I *12:A1 I *L 0.621599 *C 2.976 3.432
*N *1:4 *C 2.976 3.419
*N *1:5 *C 2.976 2.824
*N *1:6 *C 1.760 3.723
*N *1:7 *C 1.760 2.838
*N *1:8 *C 1.774 2.824
*N *1:9 *C 2.430 1.912
*N *1:10 *C 2.430 1.912
*N *1:11 *C 2.368 2.811
*N *1:12 *C 2.368 2.824
*N *1:13 *C 2.659 2.824
*N *1:14 *C 2.672 2.824

*CAP
0 *1 0.09341983
1 *15:A1 0.01456506
2 *16:A1 0.001
3 *12:A1 0.001
4 *1:4 0.02973092
5 *1:5 0.0448117
6 *1:6 0.0397987
7 *1:7 0.04094223
8 *1:8 0.02094978
9 *1:9 0.009782678
10 *1:10 0.05008445
11 *1:11 0.04009371
12 *1:12 0.03325693
13 *1:13 0.01052812
14 *1:14 0.103799

*RES
0 *1 *1:14 4.582143
1 *1:4 *12:A1 1
2 *1:14 *1:13 0.5
3 *1:14 *1:5 0.5428572
4 *1:13 *1:12 0.5187501
5 *1:11 *1:10 1.604464
6 *1:12 *1:11 0.5
7 *1:12 *1:8 1.061607
8 *1:9 *15:A1 0.1916667
9 *1:10 *1:9 0.5
10 *1:7 *1:6 1.580357
11 *1:8 *1:7 0.5
12 *1:6 *16:A1 1
13 *1:5 *1:4 1.061607

*END

*D_NET *2 0.5549579 //LENGTH 7.229 LUMPCC 0 DR

*CONN
*P *2 I *L 0 *C 4.192 8.430
*I *10:A I *L 0.753714 *C 4.496 1.912
*N *2:2 *C 4.496 1.730
*N *2:3 *C 4.496 1.900
*N *2:4 *C 4.482 1.912
*N *2:5 *C 4.205 1.912
*N *2:6 *C 4.192 1.925

*CAP
0 *2 0.2555001
1 *10:A 0.001
2 *2:2 0.0115447
3 *2:3 0.006843104
4 *2:4 0.01317442
5 *2:5 0.01317442
6 *2:6 0.2537211

*RES
0 *2 *2:6 11.61518
1 *2:3 *10:A 1
2 *2:3 *2:2 0.2825
3 *2:4 *2:3 0.5
4 *2:6 *2:5 0.5
5 *2:5 *2:4 0.4946429

*END

*D_NET *3 0.2052997 //LENGTH 3.277 LUMPCC 0 DR

*CONN
*P *3 I *L 0 *C 2.976 8.430
*I *13:A I *L 1.468433 *C 1.760 6.776
*N *3:2 *C 1.760 6.594
*N *3:3 *C 1.760 6.764
*N *3:4 *C 1.774 6.776
*N *3:5 *C 2.963 6.776
*N *3:6 *C 2.976 6.790

*CAP
0 *3 0.05828981
1 *13:A 0.001
2 *3:2 0.009522568
3 *3:3 0.004820968
4 *3:4 0.03757776
5 *3:5 0.03757776
6 *3:6 0.05651078

*RES
0 *3 *3:6 2.929464
1 *3:3 *13:A 1
2 *3:3 *3:2 0.2825
3 *3:4 *3:3 0.5
4 *3:6 *3:5 0.5
5 *3:5 *3:4 2.123214

*END

*D_NET *4 0.1689176 //LENGTH 2.452 LUMPCC 0 DR

*CONN
*I *15:Y O *L 0 *C 1.274 2.236
*P *4 O *L 0 *C 0.258 3.432
*N *4:2 *C 0.987 3.432
*N *4:3 *C 1.000 3.419
*N *4:4 *C 1.000 2.230
*N *4:5 *C 1.015 2.216

*CAP
0 *15:Y 0.01528831
1 *4 0.02612953
2 *4:2 0.0243505
3 *4:3 0.04463508
4 *4:4 0.04481998
5 *4:5 0.01369418

*RES
0 *15:Y *4:5 0.5180001
1 *4:5 *4:4 1
2 *4:4 *4:3 2.123214
3 *4:3 *4:2 0.5
4 *4:2 *4 1.300893

*END

*D_NET *19 0.2756572 //LENGTH 3.229 LUMPCC 0 DR

*CONN
*I *16:Y O *L 0 *C 2.369 3.292
*I *7:D I *L 0.558146 *C 3.250 5.408
*N *19:2 *C 2.535 5.408
*N *19:3 *C 2.520 5.394
*N *19:4 *C 2.520 3.294
*N *19:5 *C 2.508 3.280

*CAP
0 *16:Y 0.0127597
1 *7:D 0.03968984
2 *19:2 0.03809571
3 *19:3 0.08697321
4 *19:4 0.08697321
5 *19:5 0.01116557

*RES
0 *16:Y *19:5 0.2308334
1 *19:2 *7:D 1.43
2 *19:3 *19:2 1
3 *19:5 *19:4 1
4 *19:4 *19:3 3.751786

*END

*D_NET *20 0.1981369 //LENGTH 2.914 LUMPCC 0 DR

*CONN
*I *11:Y O *L 0 *C 1.912 5.408
*I *8:D I *L 0.558146 *C 3.280 6.624
*N *20:2 *C 3.280 6.611
*N *20:3 *C 3.280 5.878
*N *20:4 *C 3.267 5.864
*N *20:5 *C 1.925 5.864
*N *20:6 *C 1.912 5.851
*N *20:7 *C 1.912 5.421

*CAP
0 *11:Y 0.001
1 *8:D 0.001
2 *20:2 0.03332065
3 *20:3 0.03446418
4 *20:4 0.04598318
5 *20:5 0.04598318
6 *20:6 0.01876461
7 *20:7 0.01762108

*RES
0 *11:Y *20:7 1
1 *20:2 *8:D 1
2 *20:3 *20:2 1.308929
3 *20:4 *20:3 0.5
4 *20:6 *20:5 0.5
5 *20:5 *20:4 2.394643
6 *20:7 *20:6 0.7660714

*END

*D_NET *21 0.451987 //LENGTH 5.954 LUMPCC 0 DR

*CONN
*I *9:Y O *L 0 *C 4.952 3.280
*I *7:CLK I *L 0.714381 *C 3.584 4.496
*I *8:CLK I *L 0.714381 *C 3.584 7.536
*N *21:3 *C 3.584 7.522
*N *21:4 *C 3.584 4.496
*N *21:5 *C 3.584 3.750
*N *21:6 *C 3.598 3.736
*N *21:7 *C 4.939 3.736
*N *21:8 *C 4.952 3.723
*N *21:9 *C 4.952 3.294

*CAP
0 *9:Y 0.001
1 *7:CLK 0.001
2 *8:CLK 0.001
3 *21:3 0.11433
4 *21:4 0.1499234
5 *21:5 0.03381432
6 *21:6 0.05669422
7 *21:7 0.05669422
8 *21:8 0.01933722
9 *21:9 0.01819368

*RES
0 *9:Y *21:9 1
1 *21:3 *8:CLK 1
2 *21:4 *7:CLK 1
3 *21:4 *21:3 5.404465
4 *21:5 *21:4 1.333036
5 *21:6 *21:5 0.5
6 *21:8 *21:7 0.5
7 *21:7 *21:6 2.394643
8 *21:9 *21:8 0.7660714

*END

*D_NET *22 0.292367 //LENGTH 3.414 LUMPCC 0 DR

*CONN
*I *10:Y O *L 0 *C 5.560 2.064
*I *9:A I *L 0.578227 *C 4.181 3.432
*N *22:2 *C 4.053 3.432
*N *22:3 *C 4.040 3.419
*N *22:4 *C 4.040 2.534
*N *22:5 *C 4.054 2.520
*N *22:6 *C 5.546 2.520
*N *22:7 *C 5.560 2.506
*N *22:8 *C 5.560 2.078

*CAP
0 *10:Y 0.001
1 *9:A 0.01510713
2 *22:2 0.01351301
3 *22:3 0.05113612
4 *22:4 0.05095121
5 *22:5 0.06185569
6 *22:6 0.06185569
7 *22:7 0.01904585
8 *22:8 0.01790232

*RES
0 *10:Y *22:8 1
1 *22:2 *9:A 0.2133334
2 *22:3 *22:2 1
3 *22:4 *22:3 1.580357
4 *22:5 *22:4 0.5
5 *22:7 *22:6 0.5
6 *22:6 *22:5 2.666071
7 *22:8 *22:7 0.7660714

*END

*D_NET *23 0.2580946 //LENGTH 3.350 LUMPCC 0 DR

*CONN
*I *12:Y O *L 0 *C 2.824 3.584
*I *11:A I *L 0.604022 *C 1.608 5.256
*N *23:2 *C 1.608 5.074
*N *23:3 *C 1.608 5.244
*N *23:4 *C 1.622 5.256
*N *23:5 *C 2.811 5.256
*N *23:6 *C 2.824 5.243
*N *23:7 *C 2.824 3.598

*CAP
0 *12:Y 0.001
1 *11:A 0.001
2 *23:2 0.01140628
3 *23:3 0.006704676
4 *23:4 0.04316161
5 *23:5 0.04316161
6 *23:6 0.076402
7 *23:7 0.07525847

*RES
0 *12:Y *23:7 1
1 *23:3 *11:A 1
2 *23:3 *23:2 0.2825
3 *23:4 *23:3 0.5
4 *23:6 *23:5 0.5
5 *23:5 *23:4 2.123214
6 *23:7 *23:6 2.9375

*END

*D_NET *24 0.4137517 //LENGTH 5.853 LUMPCC 0 DR

*CONN
*I *13:Y O *L 0 *C 1.264 6.629
*I *16:A4 I *L 0.462068 *C 1.304 3.432
*I *12:A2 I *L 0.567721 *C 3.128 3.584
*N *24:3 *C 3.128 3.572
*N *24:4 *C 3.128 3.432
*N *24:5 *C 3.115 3.432
*N *24:6 *C 1.318 3.432
*N *24:7 *C 1.303 3.432
*N *24:8 *C 1.152 3.432
*N *24:9 *C 1.152 6.611
*N *24:10 *C 1.165 6.624

*CAP
0 *13:Y 0.008576061
1 *16:A4 0.001
2 *12:A2 0.001
3 *24:3 0.009548387
4 *24:4 0.01069192
5 *24:5 0.0664289
6 *24:6 0.0664289
7 *24:7 0.002139647
8 *24:8 0.1246957
9 *24:9 0.1162603
10 *24:10 0.006981933

*RES
0 *13:Y *24:10 0.1658334
1 *24:7 *16:A4 1
2 *24:7 *24:6 0.5
3 *24:6 *24:5 3.208929
4 *24:4 *24:3 0.2325
5 *24:5 *24:4 0.5
6 *24:3 *12:A2 1
7 *24:10 *24:9 1
8 *24:9 *24:8 5.675893
9 *24:8 *24:7 0.2696429

*END

*D_NET *25 0.1632764 //LENGTH 2.089 LUMPCC 0 DR

*CONN
*I *17:Y O *L 0 *C 7.840 3.584
*I *18:A2 I *L 0.483357 *C 6.320 3.432
*N *25:2 *C 6.320 3.300
*N *25:3 *C 6.320 3.420
*N *25:4 *C 6.333 3.432
*N *25:5 *C 7.827 3.432
*N *25:6 *C 7.840 3.432
*N *25:7 *C 7.840 3.572

*CAP
0 *17:Y 0.001
1 *18:A2 0.001
2 *25:2 0.01085452
3 *25:3 0.004803236
4 *25:4 0.05801659
5 *25:5 0.05949912
6 *25:6 0.01462324
7 *25:7 0.01347971

*RES
0 *17:Y *25:7 1
1 *25:3 *18:A2 1
2 *25:3 *25:2 0.1991667
3 *25:4 *25:3 0.5
4 *25:6 *25:5 0.5
5 *25:5 *25:4 2.666071
6 *25:7 *25:6 0.2325

*END

*D_NET *26 0.7207603 //LENGTH 9.657 LUMPCC 0 DR

*CONN
*I *14:Y O *L 0 *C 7.858 5.104
*I *18:A1 I *L 0.564384 *C 6.168 3.736
*I *15:A2 I *L 0.708348 *C 2.064 2.094
*N *26:3 *C 2.064 2.034
*N *26:4 *C 2.064 2.069
*N *26:5 *C 2.064 2.216
*N *26:6 *C 2.078 2.216
*N *26:7 *C 6.155 2.216
*N *26:8 *C 6.168 2.230
*N *26:9 *C 6.168 3.723
*N *26:10 *C 6.182 3.736
*N *26:11 *C 7.979 3.736
*N *26:12 *C 7.992 3.750
*N *26:13 *C 7.992 5.091
*N *26:14 *C 7.980 5.104

*CAP
0 *14:Y 0.01539374
1 *18:A1 0.001
2 *15:A2 0.001
3 *26:3 0.006772105
4 *26:4 0.01049812
5 *26:5 0.004736703
6 *26:6 0.1401328
7 *26:7 0.1401328
8 *26:8 0.06001271
9 *26:9 0.05560762
10 *26:10 0.07535574
11 *26:11 0.07683827
12 *26:12 0.05964753
13 *26:13 0.05983243
14 *26:14 0.01379961

*RES
0 *14:Y *26:14 0.2033333
1 *26:9 *18:A1 1
2 *26:9 *26:8 2.666071
3 *26:10 *26:9 0.5
4 *26:12 *26:11 0.5
5 *26:11 *26:10 3.208929
6 *26:14 *26:13 1
7 *26:13 *26:12 2.394643
8 *26:8 *26:7 0.5
9 *26:7 *26:6 7.280357
10 *26:5 *26:4 0.245
11 *26:6 *26:5 0.5
12 *26:4 *15:A2 0.5
13 *26:4 *26:3 0.05833333

*END

*D_NET *27 0.2757608 //LENGTH 3.826 LUMPCC 0 DR

*CONN
*I *18:Y O *L 0 *C 6.016 3.584
*I *12:A3 I *L 0.535888 *C 3.432 3.584
*N *27:2 *C 3.432 3.571
*N *27:3 *C 3.432 3.142
*N *27:4 *C 3.446 3.128
*N *27:5 *C 6.003 3.128
*N *27:6 *C 6.016 3.142
*N *27:7 *C 6.016 3.571

*CAP
0 *18:Y 0.001
1 *12:A3 0.001
2 *27:2 0.02524715
3 *27:3 0.02639068
4 *27:4 0.08857302
5 *27:5 0.08857302
6 *27:6 0.02306023
7 *27:7 0.0219167

*RES
0 *18:Y *27:7 1
1 *27:2 *12:A3 1
2 *27:3 *27:2 0.7660715
3 *27:4 *27:3 0.5
4 *27:6 *27:5 0.5
5 *27:5 *27:4 4.566072
6 *27:7 *27:6 0.7660716

*END

*D_NET *28 0.6979128 //LENGTH 8.993 LUMPCC 0 DR

*CONN
*I *7:QN O *L 0 *C 6.807 4.810
*I *16:A2 I *L 0.475405 *C 1.608 3.432
*I *14:A2 I *L 0.483357 *C 7.538 5.284
*N *28:3 *C 7.397 5.256
*N *28:4 *C 7.384 5.243
*N *28:5 *C 1.608 3.446
*N *28:6 *C 1.608 4.040
*N *28:7 *C 1.760 4.040
*N *28:8 *C 1.760 4.635
*N *28:9 *C 1.774 4.648
*N *28:10 *C 7.371 4.648
*N *28:11 *C 7.384 4.660
*N *28:12 *C 7.384 4.814
*N *28:13 *C 7.369 4.800

*CAP
0 *7:QN 0.03412832
1 *16:A2 0.001
2 *14:A2 0.01341121
3 *28:3 0.01181708
4 *28:4 0.02156962
5 *28:5 0.03679434
6 *28:6 0.04719605
7 *28:7 0.0389287
8 *28:8 0.02967053
9 *28:9 0.1947164
10 *28:10 0.1947164
11 *28:11 0.009040635
12 *28:12 0.03238929
13 *28:13 0.03253419

*RES
0 *7:QN *28:13 1.124
1 *28:3 *14:A2 0.2366667
2 *28:4 *28:3 1
3 *28:13 *28:12 1
4 *28:12 *28:11 0.255
5 *28:12 *28:4 0.7660714
6 *28:11 *28:10 0.5
7 *28:10 *28:9 9.994644
8 *28:8 *28:7 1.061607
9 *28:9 *28:8 0.5
10 *28:5 *16:A2 1
11 *28:6 *28:5 1.061607
12 *28:7 *28:6 0.2714286

*END

*D_NET *29 0.887245 //LENGTH 10.929 LUMPCC 0 DR

*CONN
*I *8:QN O *L 0 *C 6.776 7.232
*I *16:A3 I *L 0.475427 *C 1.456 3.736
*I *17:A2 I *L 0.483357 *C 7.511 3.457
*N *29:3 *C 6.943 3.432
*N *29:4 *C 6.928 3.446
*N *29:5 *C 6.928 4.040
*N *29:6 *C 1.456 3.554
*N *29:7 *C 1.456 3.724
*N *29:8 *C 1.470 3.736
*N *29:9 *C 2.216 3.736
*N *29:10 *C 2.216 4.040
*N *29:11 *C 6.763 4.040
*N *29:12 *C 6.776 4.040
*N *29:13 *C 6.776 7.219

*CAP
0 *8:QN 0.001
1 *16:A3 0.001
2 *17:A2 0.02894705
3 *29:3 0.02735292
4 *29:4 0.0302594
5 *29:5 0.0397221
6 *29:6 0.01493971
7 *29:7 0.01023811
8 *29:8 0.03320375
9 *29:9 0.0454955
10 *29:10 0.1875616
11 *29:11 0.1752698
12 *29:12 0.1506336
13 *29:13 0.1416215

*RES
0 *8:QN *29:13 1
1 *29:3 *17:A2 1.136
2 *29:4 *29:3 1
3 *29:13 *29:12 5.675893
4 *29:12 *29:11 0.5
5 *29:12 *29:5 0.2714286
6 *29:11 *29:10 8.118751
7 *29:7 *16:A3 1
8 *29:7 *29:6 0.2825
9 *29:8 *29:7 0.5
10 *29:5 *29:4 1.061607
11 *29:9 *29:8 1.333036
12 *29:10 *29:9 0.5428572

*END

*D_NET *30 0.3441946 //LENGTH 4.047 LUMPCC 0 DR

*CONN
*I *8:Q O *L 0 *C 6.624 7.080
*I *14:A1 I *L 0.564384 *C 7.658 4.977
*N *30:2 *C 7.095 4.952
*N *30:3 *C 7.080 4.966
*N *30:4 *C 7.080 7.384
*N *30:5 *C 6.624 7.384
*N *30:6 *C 6.624 7.094

*CAP
0 *8:Q 0.001
1 *14:A1 0.03922743
2 *30:2 0.03763331
3 *30:3 0.09933601
4 *30:4 0.1184088
5 *30:5 0.03449514
6 *30:6 0.01409393

*RES
0 *8:Q *30:6 1
1 *30:2 *14:A1 1.126
2 *30:3 *30:2 1
3 *30:6 *30:5 0.5187501
4 *30:5 *30:4 0.8142858
5 *30:4 *30:3 4.31875

*END

*D_NET *31 0.2168081 //LENGTH 2.717 LUMPCC 0 DR

*CONN
*I *7:Q O *L 0 *C 6.624 4.952
*I *17:A1 I *L 0.564384 *C 7.688 3.736
*N *31:2 *C 6.624 4.770
*N *31:3 *C 7.688 3.737
*N *31:4 *C 7.688 4.939
*N *31:5 *C 7.675 4.952
*N *31:6 *C 6.638 4.952
*N *31:7 *C 6.624 4.940

*CAP
0 *7:Q 0.001
1 *17:A1 0.001
2 *31:2 0.01466051
3 *31:3 0.05540512
4 *31:4 0.05654865
5 *31:5 0.03911746
6 *31:6 0.03911746
7 *31:7 0.009958911

*RES
0 *7:Q *31:7 1
1 *31:3 *17:A1 1
2 *31:4 *31:3 2.145536
3 *31:5 *31:4 0.5
4 *31:7 *31:6 0.5
5 *31:7 *31:2 0.2825
6 *31:6 *31:5 1.851786

*END

